%chk=diazi2.chk

# pbepbe/6-31G TD=(nstates=1) Symmetry=none Pop=Full Density=current

ejemplo de densidad exitada

0 1
 H    2.599666    1.419831    0.561279
 C    3.540004    1.419783    0.014528
 N    3.540028    2.056953   -1.372522
 H    4.480340    1.419766    0.561281
 N    3.539983    0.782835   -1.372656
 H   92.599666   91.419831   90.561279
 C   93.540004   91.419783   90.014528
 N   93.540028   92.056953   88.627478
 H   94.480340   91.419766   90.561281
 N   93.539983   90.782835   88.627344

